/*--------------------------------*- C++ -*----------------------------------*\
|                  |                                                          |
|   F ield         | FOAM:     The Open Source CFD Toolbox                    |
|   O peration     | Version:  2.1.0                                          |
|   A nd           | Web:      http://www.tridiagonal.co.in                   |
|   M anipulation  |                                                          |
\*---------------------------------------------------------------------------*/
FoamFile
{
    version     2.0;
    format      ascii;
    class       dictionary;
    object      decomposeParDict;
}
// * * * * * * * * * * * * * * * * * * * * * * * * * * * * * * * * * * * * * //

numberOfSubdomains	12;

method			simple;

simpleCoeffs
{
    n               	( 2 3 2 );
    delta           	0.001;
}

hierarchicalCoeffs
{
    n               ( 2 3 2 );
    delta           0.001;
    order           xyz;
}

metisCoeffs
{
    processorWeights 
    (
       
    );
}

manualCoeffs
{
    dataFile        "";
}

distributed     no;

roots
(
);

// ************************************************************************* //
